@<TRIPOS>MOLECULE
score/pdb/3wze_lig.pdb
 48 50 0 0 0
SMALL
GASTEIGER

@<TRIPOS>ATOM
      1  C1        26.6840   23.0630   33.5110 C.ar  1201  BAX1201    -0.0274
      2  C2        26.8340   22.0060   34.4090 C.ar  1201  BAX1201     0.0354
      3  C3        27.4580   20.8260   34.0120 C.ar  1201  BAX1201    -0.0390
      4  C4        27.9430   20.7100   32.7170 C.ar  1201  BAX1201    -0.0411
      5  C13       25.4110   22.8650   36.2800 C.2   1201  BAX1201     0.3081
      6  C16       24.1690   23.2050   38.3880 C.ar  1201  BAX1201     0.0350
      7  C17       24.4210   23.5190   39.7270 C.ar  1201  BAX1201    -0.0370
      8  C18       23.3940   24.0390   40.5130 C.ar  1201  BAX1201    -0.0176
      9  C19       22.1370   24.2480   39.9450 C.ar  1201  BAX1201     0.1286
     10  C20       21.8800   23.9340   38.6160 C.ar  1201  BAX1201    -0.0176
     11  C21       22.8990   23.4070   37.8370 C.ar  1201  BAX1201    -0.0370
     12  O22       21.1140   24.7510   40.7100 O.3   1201  BAX1201    -0.4559
     13  C24       21.2710   27.0300   39.9570 C.ar  1201  BAX1201    -0.0012
     14  C25       20.6760   28.2800   39.8760 C.ar  1201  BAX1201     0.0319
     15  C27       18.6730   27.4620   40.7660 C.ar  1201  BAX1201     0.1288
     16  C28       19.2350   26.1870   40.8920 C.ar  1201  BAX1201     0.0112
     17  N30       16.7680   28.9620   41.2810 N.am  1201  BAX1201    -0.3132
     18  C31       15.5130   29.2730   41.9710 C.3   1201  BAX1201     0.0004
     19  C5        27.7970   21.7640   31.8090 C.ar  1201  BAX1201     0.0527
     20  C6        27.1350   22.9450   32.1910 C.ar  1201  BAX1201     0.0748
     21  C7        26.9370   24.1010   31.2150 C.3   1201  BAX1201     0.4188
     22  F8        26.5220   23.6680   30.0170 F     1201  BAX1201    -0.1658
     23  F9        26.0090   24.9490   31.6730 F     1201  BAX1201    -0.1658
     24  F10       28.0880   24.7650   31.0780 F     1201  BAX1201    -0.1658
     25 CL11       28.4940   21.5480   30.2340 Cl    1201  BAX1201    -0.0830
     26  N12       26.3910   22.0820   35.7500 N.am  1201  BAX1201    -0.2692
     27  N14       25.2150   22.6450   37.6120 N.am  1201  BAX1201    -0.2692
     28  O15       24.7600   23.6690   35.6260 O.2   1201  BAX1201    -0.2522
     29  C23       20.5460   25.9800   40.4990 C.ar  1201  BAX1201     0.1321
     30  N26       19.4180   28.4900   40.2740 N.ar  1201  BAX1201    -0.2501
     31  C29       17.2690   27.6880   41.1750 C.2   1201  BAX1201     0.2623
     32  O32       16.4970   26.7710   41.4430 O.2   1201  BAX1201    -0.2685
     33  H1        26.2390   23.9660   33.8410 H     1201  BAX1201     0.0642
     34  H3        27.5560   20.0220   34.6940 H     1201  BAX1201     0.0636
     35  H4        28.4290   19.8200   32.4090 H     1201  BAX1201     0.0633
     36  H17       25.3860   23.3630   40.1340 H     1201  BAX1201     0.0637
     37  H18       23.5610   24.2790   41.5310 H     1201  BAX1201     0.0655
     38  H20       20.9120   24.0800   38.2100 H     1201  BAX1201     0.0655
     39  H21       22.7020   23.1390   36.8360 H     1201  BAX1201     0.0637
     40  H24       22.2670   26.8930   39.6330 H     1201  BAX1201     0.0669
     41  H25       21.2290   29.0980   39.4850 H     1201  BAX1201     0.0831
     42  H28       18.6660   25.3890   41.2920 H     1201  BAX1201     0.0677
     43  H30       17.3870   29.7550   41.0300 H     1201  BAX1201     0.1487
     44 H311       14.7150   28.6600   41.5490 H     1201  BAX1201     0.0426
     45 H312       15.2930   30.3330   41.8360 H     1201  BAX1201     0.0426
     46 H313       15.6380   29.0440   43.0300 H     1201  BAX1201     0.0426
     47  H12       26.7700   21.3890   36.4210 H     1201  BAX1201     0.1564
     48  H14       25.8610   21.9520   38.0400 H     1201  BAX1201     0.1564
@<TRIPOS>BOND
     1     1     2   ar
     2     1    20   ar
     3     1    33    1
     4     2     3   ar
     5     2    26    1
     6     3     4   ar
     7     3    34    1
     8     4    19   ar
     9     4    35    1
    10     5    26   am
    11     5    27   am
    12     5    28    2
    13     6     7   ar
    14     6    11   ar
    15     6    27    1
    16     7     8   ar
    17     7    36    1
    18     8     9   ar
    19     8    37    1
    20     9    10   ar
    21     9    12    1
    22    10    11   ar
    23    10    38    1
    24    11    39    1
    25    12    29    1
    26    13    14   ar
    27    13    29   ar
    28    13    40    1
    29    14    30   ar
    30    14    41    1
    31    15    16   ar
    32    15    30   ar
    33    15    31    1
    34    16    29   ar
    35    16    42    1
    36    17    18    1
    37    17    31   am
    38    17    43    1
    39    18    44    1
    40    18    45    1
    41    18    46    1
    42    19    20   ar
    43    19    25    1
    44    20    21    1
    45    21    22    1
    46    21    23    1
    47    21    24    1
    48    26    47    1
    49    27    48    1
    50    31    32    2
